powerfactory/powerfactory-converter/src/test/resources/MTDC-ElmCoup_bad-3T.dgs
$$General;ID(a:40);Descr(a:40);Val(a:255)
1;Version;5.0

$$ElmNet;ID(a:40);loc_name(a:80);for_name(a:100);fold_id(p);frnom(r);pDiagram(p)
4;Grid;;;50;15

$$ElmTerm;ID(a:40);loc_name(a:80);fold_id(p);systype(i);uknom(r);unknom(r);iUsage(i)
11;DC terminal 11;4;1;500;500;0
12;DC terminal 12;4;1;500;500;0
13;DC terminal 13;4;1;500;500;0
14;DC terminal 14;4;1;500;500;0

$$ElmCoup;ID(a:40);loc_name(a:80);fold_id(p)
21;Bad Disconnector;4

$$StaCubic;ID(a:40);loc_name(a:80);fold_id(p);obj_bus(i);obj_id(p)
31;switch cubicle 31;11;0;21
32;switch cubicle 32;12;1;21
33;switch cubicle 33;13;2;21
34;switch cubicle 34;14;3;21

